*HEADING
Lab 001 - Cantilever shell benchmark, static bending
Generated by python/generate_cantilever_shell_inp.py

*NODE
1, 0.000000, 0.000000, -50.000000
2, 0.000000, 0.000000, -30.000000
3, 0.000000, 0.000000, -10.000000
4, 0.000000, 0.000000, 10.000000
5, 0.000000, 0.000000, 30.000000
6, 0.000000, 0.000000, 50.000000
7, 25.000000, 0.000000, -50.000000
8, 25.000000, 0.000000, -30.000000
9, 25.000000, 0.000000, -10.000000
10, 25.000000, 0.000000, 10.000000
11, 25.000000, 0.000000, 30.000000
12, 25.000000, 0.000000, 50.000000
13, 50.000000, 0.000000, -50.000000
14, 50.000000, 0.000000, -30.000000
15, 50.000000, 0.000000, -10.000000
16, 50.000000, 0.000000, 10.000000
17, 50.000000, 0.000000, 30.000000
18, 50.000000, 0.000000, 50.000000
19, 75.000000, 0.000000, -50.000000
20, 75.000000, 0.000000, -30.000000
** ... 226 like lines cut

*ELEMENT, TYPE=S4, ELSET=EALL
1, 1, 7, 8, 2
2, 2, 8, 9, 3
3, 3, 9, 10, 4
4, 4, 10, 11, 5
5, 5, 11, 12, 6
6, 7, 13, 14, 8
7, 8, 14, 15, 9
8, 9, 15, 16, 10
9, 10, 16, 17, 11
10, 11, 17, 18, 12
11, 13, 19, 20, 14
12, 14, 20, 21, 15
13, 15, 21, 22, 16
14, 16, 22, 23, 17
15, 17, 23, 24, 18
16, 19, 25, 26, 20
17, 20, 26, 27, 21
18, 21, 27, 28, 22
19, 22, 28, 29, 23
20, 23, 29, 30, 24
** ... 180 like lines cut

*NSET, NSET=FIXED
1, 2, 3, 4, 5, 6

*NSET, NSET=FREE_END
241, 242, 243, 244, 245, 246

*NSET, NSET=LOADNODES
243, 244

*MATERIAL, NAME=ALUMINUM
*ELASTIC
71000.000000, 0.300000

*SHELL SECTION, ELSET=EALL, MATERIAL=ALUMINUM
20.000000

*BOUNDARY
FIXED, 1, 6, 0.

*STEP
*STATIC

*CLOAD
243, 3, -500.000000
244, 3, -500.000000

*NODE FILE
U, RF
*EL FILE
S

*NODE PRINT, NSET=LOADNODES
U
*NODE PRINT, NSET=FREE_END
U

*EL PRINT, ELSET=EALL
S

*END STEP
