*HEADING
Simple CalculiX smoke test: one C3D8 cantilever element

*NODE
1, 0., 0., 0.
2, 1., 0., 0.
3, 1., 1., 0.
4, 0., 1., 0.
5, 0., 0., 1.
6, 1., 0., 1.
7, 1., 1., 1.
8, 0., 1., 1.

*ELEMENT, TYPE=C3D8, ELSET=EALL
1, 1,2,3,4,5,6,7,8

*MATERIAL, NAME=STEEL
*ELASTIC
210000., 0.3

*SOLID SECTION, ELSET=EALL, MATERIAL=STEEL

*NSET, NSET=FIXED
1,4,5,8

*NSET, NSET=LOADNODES
2,3,6,7

*BOUNDARY
FIXED, 1, 3, 0.

*STEP
*STATIC

*CLOAD
LOADNODES, 2, -25.

*NODE FILE
U, RF

*EL FILE
S, E

*NODE PRINT, NSET=LOADNODES
U

*EL PRINT, ELSET=EALL
S

*END STEP
