*MATERIAL, NAME=S355MC
*ELASTIC
210000.000000, 0.300000
*PLASTIC
355.000000, 0.0000000000
368.890472, 0.0008749132
380.325072, 0.0011794521
388.574952, 0.0014960377
395.286603, 0.0018975302
399.836944, 0.0023290426
402.835214, 0.0028274583
404.012678, 0.0033621345
404.416146, 0.0039986248
404.731738, 0.0047771807
405.154000, 0.0055824115
405.946579, 0.0065131510
406.889031, 0.0074304163
408.320929, 0.0083920096
410.059055, 0.0092463937
412.307653, 0.0100936513
415.203373, 0.0110249462
418.178637, 0.0119806095
421.554407, 0.0130802055
424.879108, 0.0141847050
** ... 60 like lines cut
